<routes>
            <vType accel="1.0" decel="4.5" id="standard_car" length="5.0" minGap="2.5" maxSpeed="25" sigma="0.5" />

            <route id="W_N" edges="W2TL TL2N"/>
            <route id="W_E" edges="W2TL TL2E"/>
            <route id="W_S" edges="W2TL TL2S"/>
            <route id="N_W" edges="N2TL TL2W"/>
            <route id="N_E" edges="N2TL TL2E"/>
            <route id="N_S" edges="N2TL TL2S"/>
            <route id="E_W" edges="E2TL TL2W"/>
            <route id="E_N" edges="E2TL TL2N"/>
            <route id="E_S" edges="E2TL TL2S"/>
            <route id="S_W" edges="S2TL TL2W"/>
            <route id="S_N" edges="S2TL TL2N"/>
            <route id="S_E" edges="S2TL TL2E"/>
    <vehicle id="W_E_0" type="standard_car" route="W_E" depart="97.0" departLane="random" departSpeed="10" />
    <vehicle id="N_E_1" type="standard_car" route="N_E" depart="100.0" departLane="random" departSpeed="10" />
    <vehicle id="S_N_2" type="standard_car" route="S_N" depart="113.0" departLane="random" departSpeed="10" />
    <vehicle id="S_N_3" type="standard_car" route="S_N" depart="129.0" departLane="random" departSpeed="10" />
    <vehicle id="E_W_4" type="standard_car" route="E_W" depart="132.0" departLane="random" departSpeed="10" />
    <vehicle id="S_E_5" type="standard_car" route="S_E" depart="137.0" departLane="random" departSpeed="10" />
    <vehicle id="S_W_6" type="standard_car" route="S_W" depart="143.0" departLane="random" departSpeed="10" />
    <vehicle id="N_S_7" type="standard_car" route="N_S" depart="154.0" departLane="random" departSpeed="10" />
    <vehicle id="N_S_8" type="standard_car" route="N_S" depart="155.0" departLane="random" departSpeed="10" />
    <vehicle id="N_S_9" type="standard_car" route="N_S" depart="157.0" departLane="random" departSpeed="10" />
    <vehicle id="N_S_10" type="standard_car" route="N_S" depart="158.0" departLane="random" departSpeed="10" />
    <vehicle id="S_N_11" type="standard_car" route="S_N" depart="168.0" departLane="random" departSpeed="10" />
    <vehicle id="S_N_12" type="standard_car" route="S_N" depart="170.0" departLane="random" departSpeed="10" />
    <vehicle id="W_N_13" type="standard_car" route="W_N" depart="176.0" departLane="random" departSpeed="10" />
    <vehicle id="S_N_14" type="standard_car" route="S_N" depart="180.0" departLane="random" departSpeed="10" />
    <vehicle id="S_E_15" type="standard_car" route="S_E" depart="181.0" departLane="random" departSpeed="10" />
    <vehicle id="N_S_16" type="standard_car" route="N_S" depart="192.0" departLane="random" departSpeed="10" />
    <vehicle id="W_E_17" type="standard_car" route="W_E" depart="193.0" departLane="random" departSpeed="10" />
    <vehicle id="S_E_18" type="standard_car" route="S_E" depart="197.0" departLane="random" departSpeed="10" />
    <vehicle id="S_N_19" type="standard_car" route="S_N" depart="204.0" departLane="random" departSpeed="10" />
    <vehicle id="W_E_20" type="standard_car" route="W_E" depart="204.0" departLane="random" departSpeed="10" />
    <vehicle id="W_E_21" type="standard_car" route="W_E" depart="210.0" departLane="random" departSpeed="10" />
    <vehicle id="N_E_22" type="standard_car" route="N_E" depart="210.0" departLane="random" departSpeed="10" />
    <vehicle id="W_E_23" type="standard_car" route="W_E" depart="210.0" departLane="random" departSpeed="10" />
    <vehicle id="E_W_24" type="standard_car" route="E_W" depart="210.0" departLane="random" departSpeed="10" />
    <vehicle id="N_S_25" type="standard_car" route="N_S" depart="212.0" departLane="random" departSpeed="10" />
    <vehicle id="S_N_26" type="standard_car" route="S_N" depart="213.0" departLane="random" departSpeed="10" />
    <vehicle id="N_S_27" type="standard_car" route="N_S" depart="217.0" departLane="random" departSpeed="10" />
    <vehicle id="W_E_28" type="standard_car" route="W_E" depart="217.0" departLane="random" departSpeed="10" />
    <vehicle id="S_N_29" type="standard_car" route="S_N" depart="219.0" departLane="random" departSpeed="10" />
    <vehicle id="N_S_30" type="standard_car" route="N_S" depart="228.0" departLane="random" departSpeed="10" />
    <vehicle id="E_W_31" type="standard_car" route="E_W" depart="235.0" departLane="random" departSpeed="10" />
    <vehicle id="N_E_32" type="standard_car" route="N_E" depart="243.0" departLane="random" departSpeed="10" />
    <vehicle id="E_W_33" type="standard_car" route="E_W" depart="243.0" departLane="random" departSpeed="10" />
    <vehicle id="E_W_34" type="standard_car" route="E_W" depart="250.0" departLane="random" departSpeed="10" />
    <vehicle id="W_E_35" type="standard_car" route="W_E" depart="254.0" departLane="random" departSpeed="10" />
    <vehicle id="W_S_36" type="standard_car" route="W_S" depart="256.0" departLane="random" departSpeed="10" />
    <vehicle id="E_W_37" type="standard_car" route="E_W" depart="262.0" departLane="random" departSpeed="10" />
    <vehicle id="N_S_38" type="standard_car" route="N_S" depart="263.0" departLane="random" departSpeed="10" />
    <vehicle id="N_E_39" type="standard_car" route="N_E" depart="263.0" departLane="random" departSpeed="10" />
    <vehicle id="N_S_40" type="standard_car" route="N_S" depart="268.0" departLane="random" departSpeed="10" />
    <vehicle id="S_W_41" type="standard_car" route="S_W" depart="269.0" departLane="random" departSpeed="10" />
    <vehicle id="E_W_42" type="standard_car" route="E_W" depart="282.0" departLane="random" departSpeed="10" />
    <vehicle id="W_S_43" type="standard_car" route="W_S" depart="282.0" departLane="random" departSpeed="10" />
    <vehicle id="W_E_44" type="standard_car" route="W_E" depart="292.0" departLane="random" departSpeed="10" />
    <vehicle id="E_S_45" type="standard_car" route="E_S" depart="300.0" departLane="random" departSpeed="10" />
    <vehicle id="N_E_46" type="standard_car" route="N_E" depart="303.0" departLane="random" departSpeed="10" />
    <vehicle id="E_N_47" type="standard_car" route="E_N" depart="315.0" departLane="random" departSpeed="10" />
    <vehicle id="S_N_48" type="standard_car" route="S_N" depart="315.0" departLane="random" departSpeed="10" />
    <vehicle id="N_S_49" type="standard_car" route="N_S" depart="332.0" departLane="random" departSpeed="10" />
    <vehicle id="S_W_50" type="standard_car" route="S_W" depart="334.0" departLane="random" departSpeed="10" />
    <vehicle id="E_N_51" type="standard_car" route="E_N" depart="335.0" departLane="random" departSpeed="10" />
    <vehicle id="W_E_52" type="standard_car" route="W_E" depart="336.0" departLane="random" departSpeed="10" />
    <vehicle id="E_S_53" type="standard_car" route="E_S" depart="338.0" departLane="random" departSpeed="10" />
    <vehicle id="W_E_54" type="standard_car" route="W_E" depart="339.0" departLane="random" departSpeed="10" />
    <vehicle id="S_W_55" type="standard_car" route="S_W" depart="340.0" departLane="random" departSpeed="10" />
    <vehicle id="S_N_56" type="standard_car" route="S_N" depart="341.0" departLane="random" departSpeed="10" />
    <vehicle id="E_W_57" type="standard_car" route="E_W" depart="344.0" departLane="random" departSpeed="10" />
    <vehicle id="S_N_58" type="standard_car" route="S_N" depart="344.0" departLane="random" departSpeed="10" />
    <vehicle id="E_N_59" type="standard_car" route="E_N" depart="345.0" departLane="random" departSpeed="10" />
    <vehicle id="E_W_60" type="standard_car" route="E_W" depart="345.0" departLane="random" departSpeed="10" />
    <vehicle id="W_N_61" type="standard_car" route="W_N" depart="346.0" departLane="random" departSpeed="10" />
    <vehicle id="N_S_62" type="standard_car" route="N_S" depart="346.0" departLane="random" departSpeed="10" />
    <vehicle id="E_W_63" type="standard_car" route="E_W" depart="348.0" departLane="random" departSpeed="10" />
    <vehicle id="S_N_64" type="standard_car" route="S_N" depart="350.0" departLane="random" departSpeed="10" />
    <vehicle id="S_N_65" type="standard_car" route="S_N" depart="351.0" departLane="random" departSpeed="10" />
    <vehicle id="W_E_66" type="standard_car" route="W_E" depart="351.0" departLane="random" departSpeed="10" />
    <vehicle id="S_W_67" type="standard_car" route="S_W" depart="352.0" departLane="random" departSpeed="10" />
    <vehicle id="W_N_68" type="standard_car" route="W_N" depart="354.0" departLane="random" departSpeed="10" />
    <vehicle id="N_S_69" type="standard_car" route="N_S" depart="362.0" departLane="random" departSpeed="10" />
    <vehicle id="S_W_70" type="standard_car" route="S_W" depart="363.0" departLane="random" departSpeed="10" />
    <vehicle id="E_W_71" type="standard_car" route="E_W" depart="369.0" departLane="random" departSpeed="10" />
    <vehicle id="E_W_72" type="standard_car" route="E_W" depart="371.0" departLane="random" departSpeed="10" />
    <vehicle id="E_W_73" type="standard_car" route="E_W" depart="375.0" departLane="random" departSpeed="10" />
    <vehicle id="W_E_74" type="standard_car" route="W_E" depart="381.0" departLane="random" departSpeed="10" />
    <vehicle id="W_S_75" type="standard_car" route="W_S" depart="384.0" departLane="random" departSpeed="10" />
    <vehicle id="S_W_76" type="standard_car" route="S_W" depart="385.0" departLane="random" departSpeed="10" />
    <vehicle id="W_E_77" type="standard_car" route="W_E" depart="385.0" departLane="random" departSpeed="10" />
    <vehicle id="N_S_78" type="standard_car" route="N_S" depart="386.0" departLane="random" departSpeed="10" />
    <vehicle id="W_E_79" type="standard_car" route="W_E" depart="389.0" departLane="random" departSpeed="10" />
    <vehicle id="S_W_80" type="standard_car" route="S_W" depart="392.0" departLane="random" departSpeed="10" />
    <vehicle id="E_W_81" type="standard_car" route="E_W" depart="396.0" departLane="random" departSpeed="10" />
    <vehicle id="N_W_82" type="standard_car" route="N_W" depart="396.0" departLane="random" departSpeed="10" />
    <vehicle id="N_S_83" type="standard_car" route="N_S" depart="402.0" departLane="random" departSpeed="10" />
    <vehicle id="W_E_84" type="standard_car" route="W_E" depart="403.0" departLane="random" departSpeed="10" />
    <vehicle id="S_E_85" type="standard_car" route="S_E" depart="403.0" departLane="random" departSpeed="10" />
    <vehicle id="E_W_86" type="standard_car" route="E_W" depart="404.0" departLane="random" departSpeed="10" />
    <vehicle id="S_N_87" type="standard_car" route="S_N" depart="408.0" departLane="random" departSpeed="10" />
    <vehicle id="W_E_88" type="standard_car" route="W_E" depart="415.0" departLane="random" departSpeed="10" />
    <vehicle id="E_W_89" type="standard_car" route="E_W" depart="419.0" departLane="random" departSpeed="10" />
    <vehicle id="N_S_90" type="standard_car" route="N_S" depart="425.0" departLane="random" departSpeed="10" />
    <vehicle id="N_S_91" type="standard_car" route="N_S" depart="434.0" departLane="random" departSpeed="10" />
    <vehicle id="N_E_92" type="standard_car" route="N_E" depart="439.0" departLane="random" departSpeed="10" />
    <vehicle id="W_E_93" type="standard_car" route="W_E" depart="439.0" departLane="random" departSpeed="10" />
    <vehicle id="E_S_94" type="standard_car" route="E_S" depart="439.0" departLane="random" departSpeed="10" />
    <vehicle id="S_N_95" type="standard_car" route="S_N" depart="440.0" departLane="random" departSpeed="10" />
    <vehicle id="E_W_96" type="standard_car" route="E_W" depart="442.0" departLane="random" departSpeed="10" />
    <vehicle id="N_S_97" type="standard_car" route="N_S" depart="450.0" departLane="random" departSpeed="10" />
    <vehicle id="E_W_98" type="standard_car" route="E_W" depart="450.0" departLane="random" departSpeed="10" />
    <vehicle id="E_W_99" type="standard_car" route="E_W" depart="450.0" departLane="random" departSpeed="10" />
    <vehicle id="E_S_100" type="standard_car" route="E_S" depart="453.0" departLane="random" departSpeed="10" />
    <vehicle id="S_E_101" type="standard_car" route="S_E" depart="455.0" departLane="random" departSpeed="10" />
    <vehicle id="N_E_102" type="standard_car" route="N_E" depart="457.0" departLane="random" departSpeed="10" />
    <vehicle id="E_W_103" type="standard_car" route="E_W" depart="460.0" departLane="random" departSpeed="10" />
    <vehicle id="S_N_104" type="standard_car" route="S_N" depart="461.0" departLane="random" departSpeed="10" />
    <vehicle id="W_S_105" type="standard_car" route="W_S" depart="466.0" departLane="random" departSpeed="10" />
    <vehicle id="E_W_106" type="standard_car" route="E_W" depart="467.0" departLane="random" departSpeed="10" />
    <vehicle id="W_N_107" type="standard_car" route="W_N" depart="467.0" departLane="random" departSpeed="10" />
    <vehicle id="N_E_108" type="standard_car" route="N_E" depart="467.0" departLane="random" departSpeed="10" />
    <vehicle id="N_S_109" type="standard_car" route="N_S" depart="470.0" departLane="random" departSpeed="10" />
    <vehicle id="S_N_110" type="standard_car" route="S_N" depart="472.0" departLane="random" departSpeed="10" />
    <vehicle id="N_S_111" type="standard_car" route="N_S" depart="474.0" departLane="random" departSpeed="10" />
    <vehicle id="N_E_112" type="standard_car" route="N_E" depart="478.0" departLane="random" departSpeed="10" />
    <vehicle id="W_E_113" type="standard_car" route="W_E" depart="480.0" departLane="random" departSpeed="10" />
    <vehicle id="W_E_114" type="standard_car" route="W_E" depart="480.0" departLane="random" departSpeed="10" />
    <vehicle id="E_W_115" type="standard_car" route="E_W" depart="482.0" departLane="random" departSpeed="10" />
    <vehicle id="N_S_116" type="standard_car" route="N_S" depart="483.0" departLane="random" departSpeed="10" />
    <vehicle id="E_W_117" type="standard_car" route="E_W" depart="486.0" departLane="random" departSpeed="10" />
    <vehicle id="N_S_118" type="standard_car" route="N_S" depart="486.0" departLane="random" departSpeed="10" />
    <vehicle id="W_E_119" type="standard_car" route="W_E" depart="487.0" departLane="random" departSpeed="10" />
    <vehicle id="S_W_120" type="standard_car" route="S_W" depart="489.0" departLane="random" departSpeed="10" />
    <vehicle id="E_N_121" type="standard_car" route="E_N" depart="489.0" departLane="random" departSpeed="10" />
    <vehicle id="W_E_122" type="standard_car" route="W_E" depart="490.0" departLane="random" departSpeed="10" />
    <vehicle id="N_W_123" type="standard_car" route="N_W" depart="492.0" departLane="random" departSpeed="10" />
    <vehicle id="W_E_124" type="standard_car" route="W_E" depart="496.0" departLane="random" departSpeed="10" />
    <vehicle id="E_W_125" type="standard_car" route="E_W" depart="497.0" departLane="random" departSpeed="10" />
    <vehicle id="N_W_126" type="standard_car" route="N_W" depart="498.0" departLane="random" departSpeed="10" />
    <vehicle id="W_E_127" type="standard_car" route="W_E" depart="506.0" departLane="random" departSpeed="10" />
    <vehicle id="W_E_128" type="standard_car" route="W_E" depart="506.0" departLane="random" departSpeed="10" />
    <vehicle id="S_N_129" type="standard_car" route="S_N" depart="510.0" departLane="random" departSpeed="10" />
    <vehicle id="N_S_130" type="standard_car" route="N_S" depart="517.0" departLane="random" departSpeed="10" />
    <vehicle id="N_W_131" type="standard_car" route="N_W" depart="518.0" departLane="random" departSpeed="10" />
    <vehicle id="N_S_132" type="standard_car" route="N_S" depart="519.0" departLane="random" departSpeed="10" />
    <vehicle id="W_E_133" type="standard_car" route="W_E" depart="519.0" departLane="random" departSpeed="10" />
    <vehicle id="N_W_134" type="standard_car" route="N_W" depart="519.0" departLane="random" departSpeed="10" />
    <vehicle id="N_S_135" type="standard_car" route="N_S" depart="523.0" departLane="random" departSpeed="10" />
    <vehicle id="E_W_136" type="standard_car" route="E_W" depart="526.0" departLane="random" departSpeed="10" />
    <vehicle id="E_W_137" type="standard_car" route="E_W" depart="527.0" departLane="random" departSpeed="10" />
    <vehicle id="W_E_138" type="standard_car" route="W_E" depart="527.0" departLane="random" departSpeed="10" />
    <vehicle id="S_E_139" type="standard_car" route="S_E" depart="533.0" departLane="random" departSpeed="10" />
    <vehicle id="W_S_140" type="standard_car" route="W_S" depart="536.0" departLane="random" departSpeed="10" />
    <vehicle id="E_W_141" type="standard_car" route="E_W" depart="539.0" departLane="random" departSpeed="10" />
    <vehicle id="S_E_142" type="standard_car" route="S_E" depart="542.0" departLane="random" departSpeed="10" />
    <vehicle id="N_W_143" type="standard_car" route="N_W" depart="545.0" departLane="random" departSpeed="10" />
    <vehicle id="E_W_144" type="standard_car" route="E_W" depart="545.0" departLane="random" departSpeed="10" />
    <vehicle id="E_S_145" type="standard_car" route="E_S" depart="546.0" departLane="random" departSpeed="10" />
    <vehicle id="E_W_146" type="standard_car" route="E_W" depart="547.0" departLane="random" departSpeed="10" />
    <vehicle id="E_W_147" type="standard_car" route="E_W" depart="547.0" departLane="random" departSpeed="10" />
    <vehicle id="W_E_148" type="standard_car" route="W_E" depart="548.0" departLane="random" departSpeed="10" />
    <vehicle id="W_E_149" type="standard_car" route="W_E" depart="549.0" departLane="random" departSpeed="10" />
    <vehicle id="E_N_150" type="standard_car" route="E_N" depart="556.0" departLane="random" departSpeed="10" />
    <vehicle id="N_S_151" type="standard_car" route="N_S" depart="557.0" departLane="random" departSpeed="10" />
    <vehicle id="E_N_152" type="standard_car" route="E_N" depart="562.0" departLane="random" departSpeed="10" />
    <vehicle id="E_W_153" type="standard_car" route="E_W" depart="564.0" departLane="random" departSpeed="10" />
    <vehicle id="N_S_154" type="standard_car" route="N_S" depart="566.0" departLane="random" departSpeed="10" />
    <vehicle id="S_N_155" type="standard_car" route="S_N" depart="567.0" departLane="random" departSpeed="10" />
    <vehicle id="W_N_156" type="standard_car" route="W_N" depart="569.0" departLane="random" departSpeed="10" />
    <vehicle id="E_W_157" type="standard_car" route="E_W" depart="571.0" departLane="random" departSpeed="10" />
    <vehicle id="E_W_158" type="standard_car" route="E_W" depart="571.0" departLane="random" departSpeed="10" />
    <vehicle id="N_E_159" type="standard_car" route="N_E" depart="573.0" departLane="random" departSpeed="10" />
    <vehicle id="W_E_160" type="standard_car" route="W_E" depart="574.0" departLane="random" departSpeed="10" />
    <vehicle id="E_W_161" type="standard_car" route="E_W" depart="574.0" departLane="random" departSpeed="10" />
    <vehicle id="W_E_162" type="standard_car" route="W_E" depart="577.0" departLane="random" departSpeed="10" />
    <vehicle id="N_E_163" type="standard_car" route="N_E" depart="577.0" departLane="random" departSpeed="10" />
    <vehicle id="N_S_164" type="standard_car" route="N_S" depart="579.0" departLane="random" departSpeed="10" />
    <vehicle id="N_S_165" type="standard_car" route="N_S" depart="584.0" departLane="random" departSpeed="10" />
    <vehicle id="E_S_166" type="standard_car" route="E_S" depart="585.0" departLane="random" departSpeed="10" />
    <vehicle id="E_W_167" type="standard_car" route="E_W" depart="588.0" departLane="random" departSpeed="10" />
    <vehicle id="N_S_168" type="standard_car" route="N_S" depart="590.0" departLane="random" departSpeed="10" />
    <vehicle id="W_E_169" type="standard_car" route="W_E" depart="595.0" departLane="random" departSpeed="10" />
    <vehicle id="E_W_170" type="standard_car" route="E_W" depart="599.0" departLane="random" departSpeed="10" />
    <vehicle id="S_N_171" type="standard_car" route="S_N" depart="600.0" departLane="random" departSpeed="10" />
    <vehicle id="S_W_172" type="standard_car" route="S_W" depart="601.0" departLane="random" departSpeed="10" />
    <vehicle id="E_W_173" type="standard_car" route="E_W" depart="601.0" departLane="random" departSpeed="10" />
    <vehicle id="W_N_174" type="standard_car" route="W_N" depart="603.0" departLane="random" departSpeed="10" />
    <vehicle id="W_N_175" type="standard_car" route="W_N" depart="612.0" departLane="random" departSpeed="10" />
    <vehicle id="W_E_176" type="standard_car" route="W_E" depart="614.0" departLane="random" departSpeed="10" />
    <vehicle id="S_N_177" type="standard_car" route="S_N" depart="615.0" departLane="random" departSpeed="10" />
    <vehicle id="E_W_178" type="standard_car" route="E_W" depart="615.0" departLane="random" departSpeed="10" />
    <vehicle id="W_E_179" type="standard_car" route="W_E" depart="620.0" departLane="random" departSpeed="10" />
    <vehicle id="N_S_180" type="standard_car" route="N_S" depart="621.0" departLane="random" departSpeed="10" />
    <vehicle id="E_W_181" type="standard_car" route="E_W" depart="623.0" departLane="random" departSpeed="10" />
    <vehicle id="E_W_182" type="standard_car" route="E_W" depart="624.0" departLane="random" departSpeed="10" />
    <vehicle id="W_E_183" type="standard_car" route="W_E" depart="626.0" departLane="random" departSpeed="10" />
    <vehicle id="W_E_184" type="standard_car" route="W_E" depart="628.0" departLane="random" departSpeed="10" />
    <vehicle id="N_S_185" type="standard_car" route="N_S" depart="633.0" departLane="random" departSpeed="10" />
    <vehicle id="N_S_186" type="standard_car" route="N_S" depart="633.0" departLane="random" departSpeed="10" />
    <vehicle id="S_N_187" type="standard_car" route="S_N" depart="633.0" departLane="random" departSpeed="10" />
    <vehicle id="S_N_188" type="standard_car" route="S_N" depart="634.0" departLane="random" departSpeed="10" />
    <vehicle id="N_S_189" type="standard_car" route="N_S" depart="634.0" departLane="random" departSpeed="10" />
    <vehicle id="W_E_190" type="standard_car" route="W_E" depart="635.0" departLane="random" departSpeed="10" />
    <vehicle id="E_S_191" type="standard_car" route="E_S" depart="636.0" departLane="random" departSpeed="10" />
    <vehicle id="N_E_192" type="standard_car" route="N_E" depart="637.0" departLane="random" departSpeed="10" />
    <vehicle id="W_E_193" type="standard_car" route="W_E" depart="639.0" departLane="random" departSpeed="10" />
    <vehicle id="E_W_194" type="standard_car" route="E_W" depart="640.0" departLane="random" departSpeed="10" />
    <vehicle id="E_S_195" type="standard_car" route="E_S" depart="640.0" departLane="random" departSpeed="10" />
    <vehicle id="W_E_196" type="standard_car" route="W_E" depart="640.0" departLane="random" departSpeed="10" />
    <vehicle id="N_S_197" type="standard_car" route="N_S" depart="643.0" departLane="random" departSpeed="10" />
    <vehicle id="S_N_198" type="standard_car" route="S_N" depart="645.0" departLane="random" departSpeed="10" />
    <vehicle id="S_N_199" type="standard_car" route="S_N" depart="648.0" departLane="random" departSpeed="10" />
    <vehicle id="S_W_200" type="standard_car" route="S_W" depart="649.0" departLane="random" departSpeed="10" />
    <vehicle id="N_E_201" type="standard_car" route="N_E" depart="651.0" departLane="random" departSpeed="10" />
    <vehicle id="E_W_202" type="standard_car" route="E_W" depart="655.0" departLane="random" departSpeed="10" />
    <vehicle id="W_E_203" type="standard_car" route="W_E" depart="656.0" departLane="random" departSpeed="10" />
    <vehicle id="N_S_204" type="standard_car" route="N_S" depart="660.0" departLane="random" departSpeed="10" />
    <vehicle id="S_N_205" type="standard_car" route="S_N" depart="660.0" departLane="random" departSpeed="10" />
    <vehicle id="W_E_206" type="standard_car" route="W_E" depart="663.0" departLane="random" departSpeed="10" />
    <vehicle id="W_E_207" type="standard_car" route="W_E" depart="665.0" departLane="random" departSpeed="10" />
    <vehicle id="S_N_208" type="standard_car" route="S_N" depart="666.0" departLane="random" departSpeed="10" />
    <vehicle id="S_N_209" type="standard_car" route="S_N" depart="667.0" departLane="random" departSpeed="10" />
    <vehicle id="W_S_210" type="standard_car" route="W_S" depart="668.0" departLane="random" departSpeed="10" />
    <vehicle id="N_S_211" type="standard_car" route="N_S" depart="674.0" departLane="random" departSpeed="10" />
    <vehicle id="N_S_212" type="standard_car" route="N_S" depart="679.0" departLane="random" departSpeed="10" />
    <vehicle id="E_W_213" type="standard_car" route="E_W" depart="680.0" departLane="random" departSpeed="10" />
    <vehicle id="E_W_214" type="standard_car" route="E_W" depart="682.0" departLane="random" departSpeed="10" />
    <vehicle id="W_E_215" type="standard_car" route="W_E" depart="682.0" departLane="random" departSpeed="10" />
    <vehicle id="E_W_216" type="standard_car" route="E_W" depart="683.0" departLane="random" departSpeed="10" />
    <vehicle id="W_E_217" type="standard_car" route="W_E" depart="687.0" departLane="random" departSpeed="10" />
    <vehicle id="S_W_218" type="standard_car" route="S_W" depart="688.0" departLane="random" departSpeed="10" />
    <vehicle id="S_N_219" type="standard_car" route="S_N" depart="688.0" departLane="random" departSpeed="10" />
    <vehicle id="W_E_220" type="standard_car" route="W_E" depart="691.0" departLane="random" departSpeed="10" />
    <vehicle id="N_S_221" type="standard_car" route="N_S" depart="692.0" departLane="random" departSpeed="10" />
    <vehicle id="N_S_222" type="standard_car" route="N_S" depart="696.0" departLane="random" departSpeed="10" />
    <vehicle id="W_E_223" type="standard_car" route="W_E" depart="698.0" departLane="random" departSpeed="10" />
    <vehicle id="W_E_224" type="standard_car" route="W_E" depart="698.0" departLane="random" departSpeed="10" />
    <vehicle id="N_S_225" type="standard_car" route="N_S" depart="702.0" departLane="random" departSpeed="10" />
    <vehicle id="W_E_226" type="standard_car" route="W_E" depart="704.0" departLane="random" departSpeed="10" />
    <vehicle id="E_W_227" type="standard_car" route="E_W" depart="705.0" departLane="random" departSpeed="10" />
    <vehicle id="E_W_228" type="standard_car" route="E_W" depart="707.0" departLane="random" departSpeed="10" />
    <vehicle id="N_S_229" type="standard_car" route="N_S" depart="707.0" departLane="random" departSpeed="10" />
    <vehicle id="S_N_230" type="standard_car" route="S_N" depart="715.0" departLane="random" departSpeed="10" />
    <vehicle id="E_W_231" type="standard_car" route="E_W" depart="717.0" departLane="random" departSpeed="10" />
    <vehicle id="S_N_232" type="standard_car" route="S_N" depart="721.0" departLane="random" departSpeed="10" />
    <vehicle id="W_S_233" type="standard_car" route="W_S" depart="723.0" departLane="random" departSpeed="10" />
    <vehicle id="E_S_234" type="standard_car" route="E_S" depart="724.0" departLane="random" departSpeed="10" />
    <vehicle id="N_S_235" type="standard_car" route="N_S" depart="724.0" departLane="random" departSpeed="10" />
    <vehicle id="N_S_236" type="standard_car" route="N_S" depart="725.0" departLane="random" departSpeed="10" />
    <vehicle id="E_N_237" type="standard_car" route="E_N" depart="733.0" departLane="random" departSpeed="10" />
    <vehicle id="W_E_238" type="standard_car" route="W_E" depart="733.0" departLane="random" departSpeed="10" />
    <vehicle id="W_N_239" type="standard_car" route="W_N" depart="734.0" departLane="random" departSpeed="10" />
    <vehicle id="W_E_240" type="standard_car" route="W_E" depart="740.0" departLane="random" departSpeed="10" />
    <vehicle id="W_E_241" type="standard_car" route="W_E" depart="742.0" departLane="random" departSpeed="10" />
    <vehicle id="N_S_242" type="standard_car" route="N_S" depart="746.0" departLane="random" departSpeed="10" />
    <vehicle id="W_E_243" type="standard_car" route="W_E" depart="747.0" departLane="random" departSpeed="10" />
    <vehicle id="E_W_244" type="standard_car" route="E_W" depart="748.0" departLane="random" departSpeed="10" />
    <vehicle id="E_W_245" type="standard_car" route="E_W" depart="748.0" departLane="random" departSpeed="10" />
    <vehicle id="E_W_246" type="standard_car" route="E_W" depart="748.0" departLane="random" departSpeed="10" />
    <vehicle id="N_E_247" type="standard_car" route="N_E" depart="755.0" departLane="random" departSpeed="10" />
    <vehicle id="E_S_248" type="standard_car" route="E_S" depart="756.0" departLane="random" departSpeed="10" />
    <vehicle id="S_N_249" type="standard_car" route="S_N" depart="756.0" departLane="random" departSpeed="10" />
    <vehicle id="E_N_250" type="standard_car" route="E_N" depart="757.0" departLane="random" departSpeed="10" />
    <vehicle id="N_S_251" type="standard_car" route="N_S" depart="760.0" departLane="random" departSpeed="10" />
    <vehicle id="E_W_252" type="standard_car" route="E_W" depart="763.0" departLane="random" departSpeed="10" />
    <vehicle id="E_S_253" type="standard_car" route="E_S" depart="764.0" departLane="random" departSpeed="10" />
    <vehicle id="W_S_254" type="standard_car" route="W_S" depart="766.0" departLane="random" departSpeed="10" />
    <vehicle id="W_S_255" type="standard_car" route="W_S" depart="767.0" departLane="random" departSpeed="10" />
    <vehicle id="E_W_256" type="standard_car" route="E_W" depart="769.0" departLane="random" departSpeed="10" />
    <vehicle id="N_S_257" type="standard_car" route="N_S" depart="771.0" departLane="random" departSpeed="10" />
    <vehicle id="E_W_258" type="standard_car" route="E_W" depart="772.0" departLane="random" departSpeed="10" />
    <vehicle id="S_N_259" type="standard_car" route="S_N" depart="773.0" departLane="random" departSpeed="10" />